Circuit: * C:\Users\piyus\projects\public\fm_radio\sims\Draft6.asc

Unknown node in .ic card: "c1" -- ignoring
Direct Newton iteration for .op point succeeded.

Date: Sat Aug 31 22:44:36 2024
Total elapsed time: 0.041 seconds.

tnom = 27
temp = 27
method = modified trap
totiter = 2085
traniter = 2082
tranpoints = 1042
accept = 1042
rejected = 0
matrix size = 3
fillins = 0
solver = Normal
Avg thread counts: 2.3/3.6/3.6/2.3
Matrix Compiler1:       3 opcodes  0.1/[0.1]/0.1
Matrix Compiler2: 175 bytes object code size  0.1/0.1/[0.1]

