Circuit: * C:\Users\piyus\Projects\public\fm_radio\sims\Draft15.asc

Number of points per decade reduced from 10000 to 8790.
.OP point found by inspection.
.step ctest=1e-11
.step ctest=2e-11
.step ctest=3e-11
.step ctest=4e-11
.step ctest=5e-11

Date: Sun Sep 22 17:33:24 2024
Total elapsed time: 0.820 seconds.

tnom = 27
temp = 27
method = trap
totiter = 0
traniter = 0
tranpoints = 0
accept = 0
rejected = 0
matrix size = 3
fillins = 1
solver = Normal
Avg thread counts: 8.0/0.0/0.0/1.0
Matrix Compiler1:       6 opcodes
Matrix Compiler2:      16 opcodes
