Circuit: * C:\Users\piyus\Projects\public\fm_radio\sims\Draft12.asc


Date: Sat Sep 21 00:45:45 2024
Total elapsed time: 0.048 seconds.

tnom = 27
temp = 27
method = trap
totiter = 105
traniter = 0
tranpoints = 0
accept = 0
rejected = 0
matrix size = 5
fillins = 0
solver = Normal
Avg thread counts: 8.0/0.0/8.0/8.0
Matrix Compiler1: 222 bytes object code size  0.2/0.2/[0.1]
Matrix Compiler2: 311 bytes object code size  0.1/0.2/[0.1]

