Circuit: * C:\Users\piyus\Projects\public\fm_radio\sims\final\Draft2.asc

.OP point found by inspection.

Date: Sun Oct 20 20:23:30 2024
Total elapsed time: 0.047 seconds.

tnom = 27
temp = 27
method = trap
totiter = 0
traniter = 0
tranpoints = 0
accept = 0
rejected = 0
matrix size = 2
fillins = 1
solver = Normal
Avg thread counts: 8.0/0.0/0.0/1.3
Matrix Compiler1:       3 opcodes
Matrix Compiler2:      10 opcodes
