Circuit: * C:\Users\piyus\knowledge\EE\fm_radio\sims\Draft4.asc

Number of points per decade reduced from 10000000 to 13845.
Direct Newton iteration for .op point succeeded.
.step vtest=1
.step vtest=2
.step vtest=3
.step vtest=4
.step vtest=5

Date: Tue Aug 20 02:34:22 2024
Total elapsed time: 0.701 seconds.

tnom = 27
temp = 27
method = trap
totiter = 18
traniter = 0
tranpoints = 0
accept = 0
rejected = 0
matrix size = 6
fillins = 0
solver = Normal
Avg thread counts: 8.0/0.0/8.0/1.0
Matrix Compiler1:      10 opcodes
Matrix Compiler2: 374 bytes object code size
