Circuit: * C:\Users\piyus\knowledge\EE\fm_radio\sims\Draft1.asc

Direct Newton iteration for .op point succeeded.
.step v2=10
.step v2=12
.step v2=14
.step v2=16
.step v2=18

Date: Wed Aug 14 10:40:23 2024
Total elapsed time: 0.729 seconds.

tnom = 27
temp = 27
method = trap
totiter = 6
traniter = 0
tranpoints = 0
accept = 0
rejected = 0
matrix size = 7
fillins = 0
solver = Normal
Avg thread counts: 8.0/0.0/8.0/1.0
Matrix Compiler1:      14 opcodes
Matrix Compiler2: 461 bytes object code size
