Circuit: * C:\Users\piyus\Projects\public\fm_radio\sims\Draft9.asc

Number of points per decade reduced from 10000000 to 44225.
Direct Newton iteration for .op point succeeded.
.step vtest=1
.step vtest=2
.step vtest=3
.step vtest=4
.step vtest=5

Date: Fri Sep 13 00:32:59 2024
Total elapsed time: 0.749 seconds.

tnom = 27
temp = 27
method = trap
totiter = 14
traniter = 0
tranpoints = 0
accept = 0
rejected = 0
matrix size = 6
fillins = 1
solver = Normal
Avg thread counts: 8.0/0.0/8.0/1.0
Matrix Compiler1:      12 opcodes
Matrix Compiler2: 394 bytes object code size
