Circuit: * C:\Users\piyus\Projects\public\fm_radio\sims\frequency_sweep_cap_change.asc

Number of points per decade reduced from 1000001 to 312961.
.OP point found by inspection.
.step scale1=1
.step scale1=1.1
.step scale1=1.2
.step scale1=1.3
.step scale1=1.4
.step scale1=1.5
.step scale1=1.6

Date: Sun Sep 15 22:53:34 2024
Total elapsed time: 3.619 seconds.

tnom = 27
temp = 27
method = trap
totiter = 0
traniter = 0
tranpoints = 0
accept = 0
rejected = 0
matrix size = 7
fillins = 0
solver = Normal
Avg thread counts: 8.0/0.0/0.0/1.0
Matrix Compiler1:      18 opcodes
Matrix Compiler2:      40 opcodes
