Circuit: * C:\Users\piyus\Projects\public\fm_radio\sims\varactor_parallel_test.asc

Number of points per decade reduced from 10000000 to 44225.
Direct Newton iteration for .op point succeeded.
.step vtest=5
.step vtest=5.1

Date: Sun Sep 22 16:57:44 2024
Total elapsed time: 0.423 seconds.

tnom = 27
temp = 27
method = trap
totiter = 13
traniter = 0
tranpoints = 0
accept = 0
rejected = 0
matrix size = 7
fillins = 5
solver = Normal
Avg thread counts: 8.0/0.0/8.0/1.0
Matrix Compiler1:      25 opcodes
Matrix Compiler2: 569 bytes object code size
