Circuit: * C:\Users\piyus\Projects\public\fm_radio\sims\varactor_test_circuit.asc

Number of points per decade reduced from 10000000 to 44225.
WARNING: Node N003 is floating.

Direct Newton iteration for .op point succeeded.
.step vtest=1
.step vtest=2
.step vtest=3
.step vtest=4
.step vtest=5

Date: Thu Sep 12 22:37:14 2024
Total elapsed time: 0.763 seconds.

tnom = 27
temp = 27
method = trap
totiter = 14
traniter = 0
tranpoints = 0
accept = 0
rejected = 0
matrix size = 7
fillins = 0
solver = Normal
Avg thread counts: 8.0/0.0/8.0/1.0
Matrix Compiler1:      12 opcodes
Matrix Compiler2: 453 bytes object code size
