Circuit: * C:\Users\piyus\Projects\public\fm_radio\sims\final\Draft5.asc

WARNING: Node N006 is floating.

WARNING: Less than two connections to node n001.  This node is used by l3.
WARNING: Less than two connections to node n007.  This node is used by l4.
.OP point found by inspection.

Date: Tue Sep 24 21:17:35 2024
Total elapsed time: 0.045 seconds.

tnom = 27
temp = 27
method = trap
totiter = 0
traniter = 0
tranpoints = 0
accept = 0
rejected = 0
matrix size = 8
fillins = 5
solver = Normal
Avg thread counts: 8.0/0.0/0.0/1.3
Matrix Compiler1:      31 opcodes
Matrix Compiler2:      50 opcodes
