Circuit: * C:\Users\piyus\Projects\public\fm_radio\sims\final\Draft1.asc

.OP point found by inspection.

Date: Wed Oct  2 18:14:49 2024
Total elapsed time: 0.032 seconds.

tnom = 27
temp = 27
method = trap
totiter = 0
traniter = 0
tranpoints = 0
accept = 0
rejected = 0
matrix size = 4
fillins = 1
solver = Normal
Avg thread counts: 8.0/0.0/0.0/1.9
Matrix Compiler1:       9 opcodes
Matrix Compiler2:      22 opcodes
