Circuit: * C:\Users\piyus\Projects\public\fm_radio\sims\final\HF_amp.asc

WARNING: Node N006 is floating.

WARNING: Less than two connections to node n006.  This node is used by c2.
Direct Newton iteration failed to find .op point.  (Use ".option noopiter" to skip.)
Starting Gmin stepping
Increasing initial diagonal Gmin to 100
Gmin = 100
Gmin = 10.7374
vernier = 0.5
vernier = 0.25
Gmin = 2.2518
vernier = 0.125
vernier = 0.0625
vernier = 0.03125
vernier = 0.015625
Gmin = 2.03919
vernier = 0.0078125
vernier = 0.00390625
Gmin = 2.01743
vernier = 0.00195312
vernier = 0.000976562
Gmin = 2.01398
vernier = 0.00130208
vernier = 0.000651042
vernier = 0.000868055
Gmin = 2.01092
vernier = 0.000434028
vernier = 0.000578703
vernier = 0.000434027
Gmin = 2.00983
Gmin = 0
Gmin stepping failed

Starting source stepping with srcstepmethod=0
Source Step = 3.0303%
vernier = 0.25
Source Step = 0.378788%
Source Step = 0.606652%
Starting source stepping with srcstepmethod=1
Source Step = 3.0303%
Source Step = 4.54545%
Source Step = 6.43939%
Source Step = 8.33333%
Source Step = 10.2273%
Source Step = 12.1212%
vernier = 0.09375
Source Step = 14.678%
Source Step = 17.5189%
Source Step = 20.3598%
Source Step = 23.2008%
Source Step = 26.0417%
vernier = 0.140625
Source Step = 29.7348%
Source Step = 33.9962%
Source Step = 38.2576%
Source Step = 42.5189%
Source Step = 46.7803%
vernier = 0.210938
Source Step = 52.107%
Source Step = 58.4991%
Source Step = 64.8911%
Source Step = 71.2831%
Source Step = 77.6752%
vernier = 0.316406
Source Step = 85.3456%
Source Step = 94.9337%
Source Step = 100%
Source Step = 100%
Source Step = 100%
Source stepping succeeded in finding the operating point.


Date: Mon Sep 30 22:11:13 2024
Total elapsed time: 0.079 seconds.

tnom = 27
temp = 27
method = trap
totiter = 9519
traniter = 0
tranpoints = 0
accept = 0
rejected = 0
matrix size = 10
fillins = 0
solver = Normal
Avg thread counts: 1.3/0.0/6.6/1.1
Matrix Compiler1:      21 opcodes
Matrix Compiler2: off  [0.1]/0.2/0.2

