Circuit: * C:\Users\piyus\Projects\public\fm_radio\sims\final\second_order_bessel.asc

.OP point found by inspection.

Date: Wed Oct 23 11:49:07 2024
Total elapsed time: 0.049 seconds.

tnom = 27
temp = 27
method = trap
totiter = 0
traniter = 0
tranpoints = 0
accept = 0
rejected = 0
matrix size = 3
fillins = 0
solver = Normal
Avg thread counts: 8.0/0.0/0.0/2.4
Matrix Compiler1:       6 opcodes
Matrix Compiler2:      16 opcodes
