LTspice 24.1.7 for Windows
Circuit: C:\Users\piyus\Projects\public\fm_radio\sims\final\Draft1.net
Start Time: Thu Jul 24 23:07:46 2025
solver = Normal
Maximum thread count: 16
tnom = 27
temp = 27
method = trap
Direct Newton iteration for .op point succeeded.
Total elapsed time: 0.035 seconds.

Files loaded:
C:\Users\piyus\Projects\public\fm_radio\sims\final\Draft1.net

