Circuit: * C:\Users\piyus\knowledge\EE\fm_radio\sims\bessel_filter.asc

Number of points per decade reduced from 10000000 to 44225.
Direct Newton iteration for .op point succeeded.
.step vtest=2
.step vtest=2.5
.step vtest=3
.step vtest=3.5
.step vtest=4
.step vtest=4.5
.step vtest=5

Date: Wed Aug 14 10:39:58 2024
Total elapsed time: 6.809 seconds.

tnom = 27
temp = 27
method = trap
totiter = 4
traniter = 0
tranpoints = 0
accept = 0
rejected = 0
matrix size = 27
fillins = 0
solver = Normal
Avg thread counts: 8.0/0.0/8.0/1.0
Matrix Compiler1:      63 opcodes
Matrix Compiler2: 1.99 KB object code size
