Circuit: * C:\Users\piyus\Projects\public\fm_radio\sims\Draft11.asc

Number of points per decade reduced from 10000000 to 44225.
WARNING: Node N002 is floating.

.OP point found by inspection.
.step vtest=0
.step vtest=1
.step vtest=2
.step vtest=3
.step vtest=4
.step vtest=5

Date: Fri Sep 13 20:44:16 2024
Total elapsed time: 0.546 seconds.

tnom = 27
temp = 27
method = trap
totiter = 0
traniter = 0
tranpoints = 0
accept = 0
rejected = 0
matrix size = 3
fillins = 0
solver = Normal
Avg thread counts: 8.0/0.0/0.0/1.0
Matrix Compiler1:       4 opcodes
Matrix Compiler2:      15 opcodes
