Circuit: * C:\Users\piyus\projects\public\fm_radio\sims\Draft7.asc

.OP point found by inspection.

Date: Tue Sep  3 01:24:29 2024
Total elapsed time: 0.047 seconds.

tnom = 27
temp = 27
method = trap
totiter = 0
traniter = 0
tranpoints = 0
accept = 0
rejected = 0
matrix size = 4
fillins = 0
solver = Normal
Avg thread counts: 8.0/0.0/0.0/1.4
Matrix Compiler1:       7 opcodes
Matrix Compiler2:      21 opcodes
