Circuit: * C:\Users\piyus\knowledge\EE\fm_radio\sims\Draft3.asc

Number of points per decade reduced from 10000000 to 44225.
Direct Newton iteration for .op point succeeded.
.step vtest=2
.step vtest=2.5
.step vtest=3
.step vtest=3.5
.step vtest=4
.step vtest=4.5
.step vtest=5

Date: Mon Aug 19 23:53:04 2024
Total elapsed time: 6.863 seconds.

tnom = 27
temp = 27
method = trap
totiter = 5
traniter = 0
tranpoints = 0
accept = 0
rejected = 0
matrix size = 22
fillins = 0
solver = Normal
Avg thread counts: 8.0/0.0/8.0/1.0
Matrix Compiler1:      42 opcodes
Matrix Compiler2: 1.48 KB object code size
